# File generated by Flopy version 3.10.0 on 06/09/2026 at 18:42:06.
BEGIN options
END options

BEGIN dimensions
  MAXBOUND  20
END dimensions

BEGIN period  1
  1 1 1 8.00000000E+00
  1 1 10 2.00000000E+00
  1 2 1 8.00000000E+00
  1 2 10 2.00000000E+00
  1 3 1 8.00000000E+00
  1 3 10 2.00000000E+00
  1 4 1 8.00000000E+00
  1 4 10 2.00000000E+00
  1 5 1 8.00000000E+00
  1 5 10 2.00000000E+00
  1 6 1 8.00000000E+00
  1 6 10 2.00000000E+00
  1 7 1 8.00000000E+00
  1 7 10 2.00000000E+00
  1 8 1 8.00000000E+00
  1 8 10 2.00000000E+00
  1 9 1 8.00000000E+00
  1 9 10 2.00000000E+00
  1 10 1 8.00000000E+00
  1 10 10 2.00000000E+00
END period  1

