# File generated by Flopy version 3.10.0 on 06/09/2026 at 18:42:06.
BEGIN options
  SAVE_FLOWS
END options

BEGIN packages
  DIS6  smoke.dis  dis
  IC6  smoke.ic  ic
  NPF6  smoke.npf  npf
  CHD6  smoke.chd  chd_0
  OC6  smoke.oc  oc
END packages

