# File generated by Flopy version 3.10.0 on 06/09/2026 at 18:42:06.
BEGIN options
  TIME_UNITS  days
END options

BEGIN dimensions
  NPER  1
END dimensions

BEGIN perioddata
       1.00000000  1       1.00000000
END perioddata

