# File generated by Flopy version 3.10.0 on 07/20/2026 at 03:51:22.
BEGIN options
  COMPLEXITY  moderate
END options

BEGIN nonlinear
  OUTER_DVCLOSE  1.00000000E-06
  OUTER_MAXIMUM  100
END nonlinear

BEGIN linear
  INNER_MAXIMUM  100
  INNER_DVCLOSE  1.00000000E-06
  LINEAR_ACCELERATION  bicgstab
END linear

