# File generated by Flopy version 3.10.0 on 07/20/2026 at 03:51:22.
BEGIN options
  TIME_UNITS  days
END options

BEGIN dimensions
  NPER  11
END dimensions

BEGIN perioddata
       1.00000000  1       1.00000000
     365.00000000  1       1.00000000
     365.00000000  1       1.00000000
     365.00000000  1       1.00000000
     365.00000000  1       1.00000000
     365.00000000  1       1.00000000
     365.00000000  1       1.00000000
     365.00000000  1       1.00000000
     365.00000000  1       1.00000000
     365.00000000  1       1.00000000
     365.00000000  1       1.00000000
END perioddata

