# File generated by Flopy version 3.10.0 on 07/20/2026 at 03:51:22.
BEGIN options
  SAVE_FLOWS
END options

BEGIN griddata
  icelltype
    CONSTANT  0
  k
    CONSTANT       8.60000000
END griddata

