# File generated by Flopy version 3.10.0 on 07/20/2026 at 03:51:22.
BEGIN options
  BUDGET  FILEOUT  csubsmoke.cbc
  HEAD  FILEOUT  csubsmoke.hds
END options

BEGIN period  1
  SAVE  HEAD  ALL
  SAVE  BUDGET  ALL
END period  1

