# File generated by Flopy version 3.10.0 on 07/20/2026 at 03:51:22.
BEGIN options
END options

BEGIN griddata
  strt
    CONSTANT      28.00000000
END griddata

