# File generated by Flopy version 3.10.0 on 07/20/2026 at 03:51:22.
BEGIN options
  BOUNDNAMES
  SAVE_FLOWS
  GAMMAW    9806.65000000
  BETA  4.65120000E-10
  HEAD_BASED
  INITIAL_PRECONSOLIDATION_HEAD
  CELL_FRACTION
  COMPACTION  FILEOUT  csubsmoke.csub.compaction.bin
  ZDISPLACEMENT  FILEOUT  csubsmoke.csub.zdisp.bin
  OBS6  FILEIN  csubsmoke.csub.obs
END options

BEGIN dimensions
  NINTERBEDS  9
  MAXSIG0  0
END dimensions

BEGIN griddata
  cg_ske_cr
    CONSTANT  1.00000000E-05
  cg_theta
    CONSTANT       0.30000000
END griddata

BEGIN packagedata
  1  1 20 20  nodelay       0.00000000       0.50000000       1.00000000       0.00200000  5.00000000E-05       0.30000000       1.00000000       0.00000000  sub_r0
  2  1 20 21  nodelay       0.00000000       0.50000000       1.00000000       0.00200000  5.00000000E-05       0.30000000       1.00000000       0.00000000  sub_r1
  3  1 20 22  nodelay       0.00000000       0.50000000       1.00000000       0.00200000  5.00000000E-05       0.30000000       1.00000000       0.00000000  sub_r2
  4  1 21 20  nodelay       0.00000000       0.50000000       1.00000000       0.00200000  5.00000000E-05       0.30000000       1.00000000       0.00000000  sub_r3
  5  1 21 21  nodelay       0.00000000       0.50000000       1.00000000       0.00200000  5.00000000E-05       0.30000000       1.00000000       0.00000000  sub_r4
  6  1 21 22  nodelay       0.00000000       0.50000000       1.00000000       0.00200000  5.00000000E-05       0.30000000       1.00000000       0.00000000  sub_r5
  7  1 22 20  nodelay       0.00000000       0.50000000       1.00000000       0.00200000  5.00000000E-05       0.30000000       1.00000000       0.00000000  sub_r6
  8  1 22 21  nodelay       0.00000000       0.50000000       1.00000000       0.00200000  5.00000000E-05       0.30000000       1.00000000       0.00000000  sub_r7
  9  1 22 22  nodelay       0.00000000       0.50000000       1.00000000       0.00200000  5.00000000E-05       0.30000000       1.00000000       0.00000000  sub_r8
END packagedata

