# File generated by Flopy version 3.10.0 on 07/20/2026 at 03:51:22.
BEGIN options
  SAVE_FLOWS
END options

BEGIN packages
  DIS6  csubsmoke.dis  dis
  IC6  csubsmoke.ic  ic
  NPF6  csubsmoke.npf  npf
  STO6  csubsmoke.sto  sto
  CHD6  csubsmoke.chd  chd_0
  WEL6  csubsmoke.wel  wel_0
  CSUB6  csubsmoke.csub  csub
  OC6  csubsmoke.oc  oc
END packages

