# File generated by Flopy version 3.10.0 on 07/19/2026 at 08:11:56.
BEGIN options
END options

BEGIN timing
  TDIS6  sfrsmoke.tdis
END timing

BEGIN models
  gwf6  sfrsmoke.nam  sfrsmoke
END models

BEGIN exchanges
END exchanges

BEGIN solutiongroup  1
  ims6  sfrsmoke.ims  sfrsmoke
END solutiongroup  1

