# File generated by Flopy version 3.10.0 on 07/19/2026 at 08:11:56.
BEGIN options
END options

BEGIN dimensions
  MAXBOUND  80
END dimensions

BEGIN period  1
  1 1 1 2.90000000E+01
  1 2 1 2.90000000E+01
  1 3 1 2.90000000E+01
  1 4 1 2.90000000E+01
  1 5 1 2.90000000E+01
  1 6 1 2.90000000E+01
  1 7 1 2.90000000E+01
  1 8 1 2.90000000E+01
  1 9 1 2.90000000E+01
  1 10 1 2.90000000E+01
  1 11 1 2.90000000E+01
  1 12 1 2.90000000E+01
  1 13 1 2.90000000E+01
  1 14 1 2.90000000E+01
  1 15 1 2.90000000E+01
  1 16 1 2.90000000E+01
  1 17 1 2.90000000E+01
  1 18 1 2.90000000E+01
  1 19 1 2.90000000E+01
  1 20 1 2.90000000E+01
  1 21 1 2.90000000E+01
  1 22 1 2.90000000E+01
  1 23 1 2.90000000E+01
  1 24 1 2.90000000E+01
  1 25 1 2.90000000E+01
  1 26 1 2.90000000E+01
  1 27 1 2.90000000E+01
  1 28 1 2.90000000E+01
  1 29 1 2.90000000E+01
  1 30 1 2.90000000E+01
  1 31 1 2.90000000E+01
  1 32 1 2.90000000E+01
  1 33 1 2.90000000E+01
  1 34 1 2.90000000E+01
  1 35 1 2.90000000E+01
  1 36 1 2.90000000E+01
  1 37 1 2.90000000E+01
  1 38 1 2.90000000E+01
  1 39 1 2.90000000E+01
  1 40 1 2.90000000E+01
  1 1 40 2.70000000E+01
  1 2 40 2.70000000E+01
  1 3 40 2.70000000E+01
  1 4 40 2.70000000E+01
  1 5 40 2.70000000E+01
  1 6 40 2.70000000E+01
  1 7 40 2.70000000E+01
  1 8 40 2.70000000E+01
  1 9 40 2.70000000E+01
  1 10 40 2.70000000E+01
  1 11 40 2.70000000E+01
  1 12 40 2.70000000E+01
  1 13 40 2.70000000E+01
  1 14 40 2.70000000E+01
  1 15 40 2.70000000E+01
  1 16 40 2.70000000E+01
  1 17 40 2.70000000E+01
  1 18 40 2.70000000E+01
  1 19 40 2.70000000E+01
  1 20 40 2.70000000E+01
  1 21 40 2.70000000E+01
  1 22 40 2.70000000E+01
  1 23 40 2.70000000E+01
  1 24 40 2.70000000E+01
  1 25 40 2.70000000E+01
  1 26 40 2.70000000E+01
  1 27 40 2.70000000E+01
  1 28 40 2.70000000E+01
  1 29 40 2.70000000E+01
  1 30 40 2.70000000E+01
  1 31 40 2.70000000E+01
  1 32 40 2.70000000E+01
  1 33 40 2.70000000E+01
  1 34 40 2.70000000E+01
  1 35 40 2.70000000E+01
  1 36 40 2.70000000E+01
  1 37 40 2.70000000E+01
  1 38 40 2.70000000E+01
  1 39 40 2.70000000E+01
  1 40 40 2.70000000E+01
END period  1

BEGIN period  2
  1 1 1 2.90000000E+01
  1 2 1 2.90000000E+01
  1 3 1 2.90000000E+01
  1 4 1 2.90000000E+01
  1 5 1 2.90000000E+01
  1 6 1 2.90000000E+01
  1 7 1 2.90000000E+01
  1 8 1 2.90000000E+01
  1 9 1 2.90000000E+01
  1 10 1 2.90000000E+01
  1 11 1 2.90000000E+01
  1 12 1 2.90000000E+01
  1 13 1 2.90000000E+01
  1 14 1 2.90000000E+01
  1 15 1 2.90000000E+01
  1 16 1 2.90000000E+01
  1 17 1 2.90000000E+01
  1 18 1 2.90000000E+01
  1 19 1 2.90000000E+01
  1 20 1 2.90000000E+01
  1 21 1 2.90000000E+01
  1 22 1 2.90000000E+01
  1 23 1 2.90000000E+01
  1 24 1 2.90000000E+01
  1 25 1 2.90000000E+01
  1 26 1 2.90000000E+01
  1 27 1 2.90000000E+01
  1 28 1 2.90000000E+01
  1 29 1 2.90000000E+01
  1 30 1 2.90000000E+01
  1 31 1 2.90000000E+01
  1 32 1 2.90000000E+01
  1 33 1 2.90000000E+01
  1 34 1 2.90000000E+01
  1 35 1 2.90000000E+01
  1 36 1 2.90000000E+01
  1 37 1 2.90000000E+01
  1 38 1 2.90000000E+01
  1 39 1 2.90000000E+01
  1 40 1 2.90000000E+01
  1 1 40 2.70000000E+01
  1 2 40 2.70000000E+01
  1 3 40 2.70000000E+01
  1 4 40 2.70000000E+01
  1 5 40 2.70000000E+01
  1 6 40 2.70000000E+01
  1 7 40 2.70000000E+01
  1 8 40 2.70000000E+01
  1 9 40 2.70000000E+01
  1 10 40 2.70000000E+01
  1 11 40 2.70000000E+01
  1 12 40 2.70000000E+01
  1 13 40 2.70000000E+01
  1 14 40 2.70000000E+01
  1 15 40 2.70000000E+01
  1 16 40 2.70000000E+01
  1 17 40 2.70000000E+01
  1 18 40 2.70000000E+01
  1 19 40 2.70000000E+01
  1 20 40 2.70000000E+01
  1 21 40 2.70000000E+01
  1 22 40 2.70000000E+01
  1 23 40 2.70000000E+01
  1 24 40 2.70000000E+01
  1 25 40 2.70000000E+01
  1 26 40 2.70000000E+01
  1 27 40 2.70000000E+01
  1 28 40 2.70000000E+01
  1 29 40 2.70000000E+01
  1 30 40 2.70000000E+01
  1 31 40 2.70000000E+01
  1 32 40 2.70000000E+01
  1 33 40 2.70000000E+01
  1 34 40 2.70000000E+01
  1 35 40 2.70000000E+01
  1 36 40 2.70000000E+01
  1 37 40 2.70000000E+01
  1 38 40 2.70000000E+01
  1 39 40 2.70000000E+01
  1 40 40 2.70000000E+01
END period  2

