# File generated by Flopy version 3.10.0 on 07/19/2026 at 08:11:56.
BEGIN options
END options

BEGIN nonlinear
  OUTER_DVCLOSE  1.00000000E-06
  OUTER_MAXIMUM  200
END nonlinear

BEGIN linear
  INNER_MAXIMUM  100
  INNER_DVCLOSE  1.00000000E-07
  LINEAR_ACCELERATION  bicgstab
END linear

