# File generated by Flopy version 3.10.0 on 07/19/2026 at 08:11:56.
BEGIN options
END options

BEGIN dimensions
  NPER  2
END dimensions

BEGIN perioddata
       1.00000000  1       1.00000000
     365.00000000  1       1.00000000
END perioddata

