# File generated by Flopy version 3.10.0 on 07/19/2026 at 08:11:56.
BEGIN options
  SAVE_FLOWS
  STAGE  FILEOUT  sfrsmoke.sfr.stg
  BUDGET  FILEOUT  sfrsmoke.sfr.bud
  BUDGETCSV  FILEOUT  sfrsmoke.sfr.bud.csv
  OBS6  FILEIN  sfrsmoke.sfr.obs
  UNIT_CONVERSION   86400.00000000
END options

BEGIN dimensions
  NREACHES  8
END dimensions

BEGIN packagedata
  1  1 21 9     100.00000000       5.00000000       0.00100000      28.50000000       1.00000000       0.50000000  0.035  1       1.00000000  0
  2  1 21 11     100.00000000       5.00000000       0.00100000      28.45000000       1.00000000       0.50000000  0.035  2       1.00000000  0
  3  1 21 13     100.00000000       5.00000000       0.00100000      28.40000000       1.00000000       0.50000000  0.035  2       1.00000000  0
  4  1 21 15     100.00000000       5.00000000       0.00100000      28.35000000       1.00000000       0.50000000  0.035  2       1.00000000  0
  5  1 21 17     100.00000000       5.00000000       0.00100000      28.30000000       1.00000000       0.50000000  0.035  2       1.00000000  0
  6  1 21 19     100.00000000       5.00000000       0.00100000      28.25000000       1.00000000       0.50000000  0.035  2       1.00000000  0
  7  1 21 21     100.00000000       5.00000000       0.00100000      28.20000000       1.00000000       0.50000000  0.035  2       1.00000000  0
  8  1 21 23     100.00000000       5.00000000       0.00100000      28.15000000       1.00000000       0.50000000  0.035  1       1.00000000  0
END packagedata

BEGIN connectiondata
  1  -2
  2  1  -3
  3  2  -4
  4  3  -5
  5  4  -6
  6  5  -7
  7  6  -8
  8  7
END connectiondata

BEGIN period  1
  1  INFLOW  5000.0
END period  1

BEGIN period  2
  1  INFLOW  5000.0
END period  2

