[OPTIONS]
FLOW_UNITS           CMS
INFILTRATION         HORTON
FLOW_ROUTING         DYNWAVE
LINK_OFFSETS         DEPTH
MIN_SLOPE            0
ALLOW_PONDING        YES
SKIP_STEADY_STATE    NO
START_DATE           01/01/2024
START_TIME           00:00:00
REPORT_START_DATE    01/01/2024
REPORT_START_TIME    00:00:00
END_DATE             01/01/2024
END_TIME             03:00:00
SWEEP_START          01/01
SWEEP_END            12/31
DRY_DAYS             5
REPORT_STEP          00:05:00
WET_STEP             00:01:00
DRY_STEP             00:05:00
ROUTING_STEP         2
INERTIAL_DAMPING     PARTIAL
NORMAL_FLOW_LIMITED  BOTH
FORCE_MAIN_EQUATION  H-W
VARIABLE_STEP        0.75
LENGTHENING_STEP     0
MIN_SURFAREA         1
MAX_TRIALS           8
HEAD_TOLERANCE       0.0015
THREADS              1


;;____________________________________________________________________________________________________
[RAINGAGES]
RG INTENSITY 0:05 1 TIMESERIES HYET


;;____________________________________________________________________________________________________
[SUBCATCHMENTS]
C_0_0 RG S_0_0 0.01 100 10 0.5 0
C_0_1 RG S_0_1 0.01 100 10 0.5 0


;;____________________________________________________________________________________________________
[SUBAREAS]
C_0_0 0.012 0.1 0 0 100 OUTLET 100
C_0_1 0.012 0.1 0 0 100 OUTLET 100


;;____________________________________________________________________________________________________
[OUTFALLS]
OUT 9 FREE NO


;;____________________________________________________________________________________________________
[STORAGE]
S_0_0 11 5 0 FUNCTIONAL 0 0 100 0 0
S_0_1 10 5 0 FUNCTIONAL 0 0 100 0 0


;;____________________________________________________________________________________________________
[CONDUITS]
L_00_01 S_0_0 S_0_1 10 0.05 0 0 0
L_OUTLET S_0_1 OUT 10 0.05 0 0 0


;;____________________________________________________________________________________________________
[XSECTIONS]
L_00_01 RECT_OPEN 1 10 0 0 1
L_OUTLET RECT_OPEN 1 10 0 0 1


;;____________________________________________________________________________________________________
[POLLUTANTS]
TSS MG/L 0 0 0 0 NO * 0 0 0
E_coli #/L 0 0 0 1 NO * 0 0 0


;;____________________________________________________________________________________________________
[LANDUSES]
urban


;;____________________________________________________________________________________________________
[COVERAGES]
C_0_0  urban 100.0
C_0_1  urban 100.0


;;____________________________________________________________________________________________________
[BUILDUP]
urban TSS POW 50 1 1 AREA
urban E_coli POW 1E+11 1E+10 1 AREA


;;____________________________________________________________________________________________________
[WASHOFF]
urban TSS EXP 5 1.8 0 0
urban E_coli EXP 5 1.8 0 0


;;____________________________________________________________________________________________________
[TIMESERIES]
HYET 00:00 10.0
HYET 00:05 30.0
HYET 00:10 80.0
HYET 00:15 40.0
HYET 00:20 20.0
HYET 00:25 10.0



;;____________________________________________________________________________________________________
[REPORT]
INPUT          NO
CONTROLS       NO
SUBCATCHMENTS  NONE
NODES          ALL
LINKS          ALL
